-------------------------------------------------------
          Amber 20 PMEMD                              2020
          -------------------------------------------------------

  [-O]verwriting output

File Assignments:

 Here is the input file:

TI simulation
 &cntrl

! simulation
imin = 0,                 ! flag to run minization (0=false)
nstlim = 250000,         ! number of MD steps
irest = 1,                ! flag to restart simulation
ntx = 5,                  ! option to read from inpcrd file
ntxo = 1,                 ! read/write rst as formatted file
dt = 0.004,               ! timestep (4fs;hmr)
ntb = 2,              ! specify PBC type

! thermostate
ntt = 3,                  ! switch for time scaling (3=Langevin)
temp0 = 300,            ! reference temperature (if ntt>0)
gamma_ln = 5.0,           ! collision frequency for ntt=3
ig = -1,                  ! seed for Random Number Generator (RNG) (use -1 with
! barostate
ntp = 1,                  ! constant pressure dynamics (1=do scaling)
barostat = 2,             ! barostat to use (2=Monte Carlo)
mcbarint = 100,           ! volume change attempt every n steps
pres0 = 1.01325,          ! referenve pressure (in bars)
taup = 2.0,               ! pressure relation time (in ps)

! output
ioutfm = 1,               ! film fromat (1=binary NetCDF)
iwrap = 0,                ! wrap coordination into primary box (1=do)
ntwe = 10000,             ! write to .mden every n steps
ntwx = 10000,             ! write to .mdcrd every n steps
ntpr = 1000,              ! write energies to .mdout/.mdinfo every n steps
ntwr = 10000,             ! write rstrt file every n steps

! alchemical free energy
cut = 9.0
ntc = 2,                  ! SHAKE bond length constraints (2=H-atom)
ntf = 1,                  ! force evaluation (1=evalute all)

icfe = 1,                 ! turn on free energy calculation
ifsc = 1,                 ! use softcore parameters (0=undo)
gti_add_sc = 2,           ! (3=1-4 vdW & vdW interactions will be scaled with l
clambda = 0.8850,           ! current lambda
ifmbar = 1,               ! generate additional output (1=do)
bar_intervall = 1,
mbar_states = 12,       ! number of lamda windows considered
mbar_lambda = 0.0000 0.0479 0.1151 0.2063 0.3161 0.4374 0.5626 0.6839 0.7937 0.
timask1 = ':L11',           ! specify atoms unique to V_0
timask2 = ':25a',           ! specify atoms unique to V_1

scmask1 = ':L11@H8',
                      ! specify the unique atoms for V0
scmask2 = ':25a@C10, H11, H12, H13',
                      ! specify the unique atoms for V1
vlimit = 20
 /
 &ewald
 /

Note: ig = -1. Setting random seed to   135325 based on wallclock time in
      microseconds.

--------------------------------------------------------------------------------
   1.  RESOURCE   USE:
--------------------------------------------------------------------------------

 getting new box info from bottom of inpcrd
 NATOM  =    7509 NTYPES =      12 NBONH =    7476 MBONA  =      37
 NTHETH =      34 MTHETA =      54 NPHIH =      45 MPHIA  =      89
 NHPARM =       0 NPARM  =       0 NNB   =   10177 NRES   =    2488
 NBONA  =      37 NTHETA =      54 NPHIA =      89 NUMBND =      18
 NUMANG =      29 NPTRA  =      12 NATYP =      14 NPHB   =       0
 IFBOX  =       1 NMXRS  =      27 IFCAP =       0 NEXTRA =       0
 NCOPY  =       0

     BOX TYPE: RECTILINEAR

--------------------------------------------------------------------------------
   2.  CONTROL  DATA  FOR  THE  RUN
--------------------------------------------------------------------------------

default_name

General flags:
     imin    =       0, nmropt  =       0

Nature and format of input:
     ntx     =       5, irest   =       1, ntrx    =       1

Nature and format of output:
     ntxo    =       1, ntpr    =    1000, ntrx    =       1, ntwr    =   10000
     iwrap   =       0, ntwx    =   10000, ntwv    =       0, ntwe    =   10000
     ioutfm  =       1, ntwprt  =       0, idecomp =       0, rbornstat=      0

Potential function:
     ntf     =       1, ntb     =       2, igb     =       0, nsnb    =      25
     ipol    =       0, gbsa    =       0, iesp    =       0
     dielc   =   1.00000, cut     =   9.00000, intdiel =   1.00000

Frozen or restrained atoms:
     ibelly  =       0, ntr     =       0

Molecular dynamics:
     nstlim  =    250000, nscm    =      1000, nrespa  =         1
     t       =   0.00000, dt      =   0.00400, vlimit  =  20.00000

Langevin dynamics temperature regulation:
     ig      =  135325
     temp0   = 300.00000, tempi   =   0.00000, gamma_ln=   5.00000

Pressure regulation:
     ntp     =       1
     pres0   =   1.01325, comp    =  44.60000, taup    =   2.00000
     Monte-Carlo Barostat:
     mcbarint  =     100

SHAKE:
     ntc     =       2, jfastw  =       0
     tol     =   0.00001

Free energy options:
     icfe    =       1, ifsc    =       1, klambda =       1
     clambda =  0.8850, scalpha =  0.5000, scbeta  = 12.0000
     sceeorder =       2
     dynlmb =  0.0000 logdvdl =       0

FEP MBAR options:
     ifmbar  =       1,  bar_intervall =        1
     mbar_states =      12

Ewald parameters:
     verbose =       0, ew_type =       0, nbflag  =       1, use_pme =       1
     vdwmeth =       1, eedmeth =       1, netfrc  =       1
     Box X =   42.245   Box Y =   42.327   Box Z =   42.196
     Alpha =   90.000   Beta  =   90.000   Gamma =   90.000
     NFFT1 =   48       NFFT2 =   48       NFFT3 =   48
     Cutoff=    9.000   Tol   =0.100E-04
     Ewald Coefficient =  0.30768
     Interpolation order =    4
     TI Mask 1 :L11; matches     24 atoms
     TI Mask 2 :25a; matches     27 atoms
     TI region 1:    7482 atoms
     TI region 2:    7485 atoms
     SC Mask 1 :L11@H8; matches      1 atoms
     SC Mask 2 :25a@C10, H11, H12, H13; matches      4 atoms

    MBAR - lambda values considered:
      12 total:  0.0000 0.0479 0.1151 0.2063 0.3161 0.4374 0.5626 0.6839 0.7937 0.8850 0.9521 1.0000
    Extra energies will be computed 250000 times.

--------------------------------------------------------------------------------
   3.  ATOMIC COORDINATES AND VELOCITIES
--------------------------------------------------------------------------------

default_name
 begin time read from input coords =    50.000 ps

     Molecule     1 is partially softcore
     Molecule     2 is partially softcore
 Number of triangulated 3-point waters found:     2486
   Removing shake constraints from C7    L11   1 -- H8    L11   1
 Number of shake restraints removed in TI region  1 :        1
 Number of shake restraints removed in TI region  2 :        0

     Sum of charges for TI region  1 =   0.00099900
     Skip neutralizing charges...

     Sum of charges for TI region  2 =   0.00000001
     Skip neutralizing charges...

--------------------------------------------------------------------------------
   4.  RESULTS
 NSTEP =     1000   TIME(PS) =      54.000  TEMP(K) =   293.85  PRESS =     0.0
 Etot   =    -19372.4109  EKtot   =      4374.0177  EPtot      =    -23746.4287
 BOND   =        12.0222  ANGLE   =        32.6206  DIHED      =        20.7428
 1-4 NB =         8.8960  1-4 EEL =      -180.7258  VDWAALS    =      3317.1101
 EELEC  =    -26957.0945  EHBOND  =         0.0000  RESTRAINT  =         0.0000
 EKCMT  =         0.0000  VIRIAL  =         0.0000  VOLUME     =     75562.7310
                                                    Density    =         0.9890
 DV/DL  =       -28.3034
 ------------------------------------------------------------------------------

      A V E R A G E S   O V E R     250 S T E P S

 NSTEP =   250000   TIME(PS) =    1050.000  TEMP(K) =   299.83  PRESS =     0.0
 Etot   =    -19251.0475  EKtot   =      4463.0558  EPtot      =    -23714.1033
 BOND   =         9.6141  ANGLE   =        29.8496  DIHED      =        10.1963
 1-4 NB =         7.8812  1-4 EEL =      -167.4283  VDWAALS    =      3474.0990
 EELEC  =    -27078.3152  EHBOND  =         0.0000  RESTRAINT  =         0.0000
 EKCMT  =         0.0000  VIRIAL  =         0.0000  VOLUME     =     76043.4036
                                                    Density    =         0.9828
 DV/DL  =       -28.5249
 ------------------------------------------------------------------------------

      R M S  F L U C T U A T I O N S

 NSTEP =   250000   TIME(PS) =    1050.000  TEMP(K) =     3.43  PRESS =     0.0
 Etot   =        89.8337  EKtot   =        50.9928  EPtot      =        76.5507
 BOND   =         3.1861  ANGLE   =         4.1097  DIHED      =         3.3618
 1-4 NB =         0.9751  1-4 EEL =         4.9963  VDWAALS    =        78.7144
 EELEC  =       123.5628  EHBOND  =         0.0000  RESTRAINT  =         0.0000
 EKCMT  =         0.0000  VIRIAL  =         0.0000  VOLUME     =       423.3328
                                                    Density    =         0.0055
 DV/DL  =         3.0532
 ------------------------------------------------------------------------------

      A V E R A G E S   O V E R     250 S T E P S

 NSTEP =   250000   TIME(PS) =    1050.000  TEMP(K) =   299.83  PRESS =     0.0
 Etot   =    -19249.2999  EKtot   =      4464.8034  EPtot      =    -23714.1033
 BOND   =         9.6141  ANGLE   =        29.8496  DIHED      =        10.1963
 1-4 NB =         7.8812  1-4 EEL =      -167.4283  VDWAALS    =      3474.0990
 EELEC  =    -27078.3152  EHBOND  =         0.0000  RESTRAINT  =         0.0000
 EKCMT  =         0.0000  VIRIAL  =         0.0000  VOLUME     =     76043.4036
                                                    Density    =         0.9830
 DV/DL  =       -28.5249
 ------------------------------------------------------------------------------

      R M S  F L U C T U A T I O N S

 NSTEP =   250000   TIME(PS) =    1050.000  TEMP(K) =     3.43  PRESS =     0.0
 Etot   =        89.8608  EKtot   =        51.0935  EPtot      =        76.5507
 BOND   =         3.1861  ANGLE   =         4.1097  DIHED      =         3.3618
 1-4 NB =         0.9751  1-4 EEL =         4.9963  VDWAALS    =        78.7144
 EELEC  =       123.5628  EHBOND  =         0.0000  RESTRAINT  =         0.0000
 EKCMT  =         0.0000  VIRIAL  =         0.0000  VOLUME     =       423.3328
                                                    Density    =         0.0055
 DV/DL  =         3.0532
 ------------------------------------------------------------------------------

      DV/DL, AVERAGES OVER     250 STEPS

 NSTEP =   250000   TIME(PS) =    1050.000  TEMP(K) =     3.43  PRESS =     0.0
 Etot   =         0.0000  EKtot   =         0.0000  EPtot      =         0.0000
 BOND   =         0.0000  ANGLE   =         0.0000  DIHED      =         0.0000
 1-4 NB =         0.6934  1-4 EEL =       -51.8490  VDWAALS    =        -2.5299
 EELEC  =        22.0691  EHBOND  =         0.0000  RESTRAINT  =         0.0000
 EKCMT  =         0.0000  VIRIAL  =         0.0000  VOLUME     =         0.0000
                                                    Density    =         0.0000
 ------------------------------------------------------------------------------
