-------------------------------------------------------
          Amber 20 PMEMD                              2020
          -------------------------------------------------------

  [-O]verwriting output

File Assignments:

 Here is the input file:

TI simulation
 &cntrl

! simulation
imin = 0,                 ! flag to run minization (0=false)
nstlim = 1000000,         ! number of MD steps
irest = 1,                ! flag to restart simulation
ntx = 5,                  ! option to read from inpcrd file
ntxo = 1,                 ! read/write rst as formatted file
dt = 0.004,               ! timestep (4fs;hmr)
ntb = 2,              ! specify PBC type

! thermostate
ntt = 3,                  ! switch for time scaling (3=Langevin)
temp0 = 300,            ! reference temperature (if ntt>0)
gamma_ln = 5.0,           ! collision frequency for ntt=3
ig = -1,                  ! seed for Random Number Generator (RNG) (use -1 with
! barostate
ntp = 1,                  ! constant pressure dynamics (1=do scaling)
barostat = 2,             ! barostat to use (2=Monte Carlo)
mcbarint = 100,           ! volume change attempt every n steps
pres0 = 1.01325,          ! referenve pressure (in bars)
taup = 2.0,               ! pressure relation time (in ps)

! output
ioutfm = 1,               ! film fromat (1=binary NetCDF)
iwrap = 0,                ! wrap coordination into primary box (1=do)
ntwe = 10000,             ! write to .mden every n steps
ntwx = 10000,             ! write to .mdcrd every n steps
ntpr = 1000,              ! write energies to .mdout/.mdinfo every n steps
ntwr = 10000,             ! write rstrt file every n steps

! alchemical free energy
cut = 9.0
ntc = 2,                  ! SHAKE bond length constraints (2=H-atom)
ntf = 1,                  ! force evaluation (1=evalute all)

icfe = 1,                 ! turn on free energy calculation
ifsc = 1,                 ! use softcore parameters (0=undo)
gti_add_sc = 2,           ! (3=1-4 vdW & vdW interactions will be scaled with l
clambda = 1.0000,           ! current lambda
ifmbar = 1,               ! generate additional output (1=do)
bar_intervall = 1,
mbar_states = 12,       ! number of lamda windows considered
mbar_lambda = 0.0000 0.0479 0.1151 0.2063 0.3161 0.4374 0.5626 0.6839 0.7937 0.
timask1 = ':L11',           ! specify atoms unique to V_0
timask2 = ':25a',           ! specify atoms unique to V_1

scmask1 = ':L11@H8',
                      ! specify the unique atoms for V0
scmask2 = ':25a@C10, H11, H12, H13',
                      ! specify the unique atoms for V1
vlimit = 20
 /
 &ewald
 /

Note: ig = -1. Setting random seed to     6229 based on wallclock time in
      microseconds.

--------------------------------------------------------------------------------
   1.  RESOURCE   USE:
--------------------------------------------------------------------------------

 getting new box info from bottom of inpcrd
 NATOM  =   60356 NTYPES =      31 NBONH =   52209 MBONA  =    8020
 NTHETH =   27067 MTHETA =    9782 NPHIH =   47357 MPHIA  =   32618
 NHPARM =       0 NPARM  =       0 NNB   =  162909 NRES   =   14308
 NBONA  =    8020 NTHETA =    9782 NPHIA =   32618 NUMBND =     105
 NUMANG =     226 NPTRA  =     256 NATYP =      65 NPHB   =       0
 IFBOX  =       1 NMXRS  =      50 IFCAP =       0 NEXTRA =       0
 NCOPY  =       0

     BOX TYPE: RECTILINEAR

--------------------------------------------------------------------------------
   2.  CONTROL  DATA  FOR  THE  RUN
--------------------------------------------------------------------------------

default_name

General flags:
     imin    =       0, nmropt  =       0

Nature and format of input:
     ntx     =       5, irest   =       1, ntrx    =       1

Nature and format of output:
     ntxo    =       1, ntpr    =    1000, ntrx    =       1, ntwr    =   10000
     iwrap   =       0, ntwx    =   10000, ntwv    =       0, ntwe    =   10000
     ioutfm  =       1, ntwprt  =       0, idecomp =       0, rbornstat=      0

Potential function:
     ntf     =       1, ntb     =       2, igb     =       0, nsnb    =      25
     ipol    =       0, gbsa    =       0, iesp    =       0
     dielc   =   1.00000, cut     =   9.00000, intdiel =   1.00000

Frozen or restrained atoms:
     ibelly  =       0, ntr     =       0

Molecular dynamics:
     nstlim  =   1000000, nscm    =      1000, nrespa  =         1
     t       =   0.00000, dt      =   0.00400, vlimit  =  20.00000

Langevin dynamics temperature regulation:
     ig      =    6229
     temp0   = 300.00000, tempi   =   0.00000, gamma_ln=   5.00000

Pressure regulation:
     ntp     =       1
     pres0   =   1.01325, comp    =  44.60000, taup    =   2.00000
     Monte-Carlo Barostat:
     mcbarint  =     100

SHAKE:
     ntc     =       2, jfastw  =       0
     tol     =   0.00001

Free energy options:
     icfe    =       1, ifsc    =       1, klambda =       1
     clambda =  1.0000, scalpha =  0.5000, scbeta  = 12.0000
     sceeorder =       2
     dynlmb =  0.0000 logdvdl =       0

FEP MBAR options:
     ifmbar  =       1,  bar_intervall =        1
     mbar_states =      12

Ewald parameters:
     verbose =       0, ew_type =       0, nbflag  =       1, use_pme =       1
     vdwmeth =       1, eedmeth =       1, netfrc  =       1
     Box X =   62.301   Box Y =   62.301   Box Z =  151.501
     Alpha =   90.000   Beta  =   90.000   Gamma =   90.000
     NFFT1 =   64       NFFT2 =   64       NFFT3 =  160
     Cutoff=    9.000   Tol   =0.100E-04
     Ewald Coefficient =  0.30768
     Interpolation order =    4
     TI Mask 1 :L11; matches     24 atoms
     TI Mask 2 :25a; matches     27 atoms
     TI region 1:   60329 atoms
     TI region 2:   60332 atoms
     SC Mask 1 :L11@H8; matches      1 atoms
     SC Mask 2 :25a@C10, H11, H12, H13; matches      4 atoms

    MBAR - lambda values considered:
      12 total:  0.0000 0.0479 0.1151 0.2063 0.3161 0.4374 0.5626 0.6839 0.7937 0.8850 0.9521 1.0000
    Extra energies will be computed ****** times.

--------------------------------------------------------------------------------
   3.  ATOMIC COORDINATES AND VELOCITIES
--------------------------------------------------------------------------------

default_name
 begin time read from input coords =  1050.000 ps

     Molecule     2 is partially softcore
     Molecule     3 is partially softcore
 Number of triangulated 3-point waters found:    13598
   Removing shake constraints from C7    L11 300 -- H8    L11 300
 Number of shake restraints removed in TI region  1 :        1
 Number of shake restraints removed in TI region  2 :        0

     Sum of charges for TI region  1 =   0.00099993
     Skip neutralizing charges...

     Sum of charges for TI region  2 =   0.00000093
     Skip neutralizing charges...

--------------------------------------------------------------------------------
   4.  RESULTS
 NSTEP =     1000   TIME(PS) =    1054.000  TEMP(K) =   300.35  PRESS =     0.0
 Etot   =   -125919.0539  EKtot   =     38434.5976  EPtot      =   -164353.6515
 BOND   =      3428.3422  ANGLE   =     10347.4958  DIHED      =      5931.4448
 UB     =         0.0000  IMP     =         0.0000  CMAP       =       346.7324
 1-4 NB =      2755.3249  1-4 EEL =     -3650.8070  VDWAALS    =      9688.2418
 EELEC  =   -193200.4263  EHBOND  =         0.0000  RESTRAINT  =         0.0000
 EKCMT  =         0.0000  VIRIAL  =         0.0000  VOLUME     =    588667.6089
                                                    Density    =         1.0286
 DV/DL  =       -29.7409
 ------------------------------------------------------------------------------

      A V E R A G E S   O V E R    1000 S T E P S

 NSTEP =  1000000   TIME(PS) =    5050.000  TEMP(K) =   300.21  PRESS =     0.0
 Etot   =   -125807.0699  EKtot   =     38416.3790  EPtot      =   -164223.4489
 BOND   =      3433.6521  ANGLE   =     10476.6031  DIHED      =      5930.5877
 UB     =         0.0000  IMP     =         0.0000  CMAP       =       347.1427
 1-4 NB =      2754.7282  1-4 EEL =     -3682.2996  VDWAALS    =      9591.0566
 EELEC  =   -193074.9197  EHBOND  =         0.0000  RESTRAINT  =         0.0000
 EKCMT  =         0.0000  VIRIAL  =         0.0000  VOLUME     =    589082.0446
                                                    Density    =         1.0279
 DV/DL  =       -27.8128
 ------------------------------------------------------------------------------

      R M S  F L U C T U A T I O N S

 NSTEP =  1000000   TIME(PS) =    5050.000  TEMP(K) =     1.13  PRESS =     0.0
 Etot   =       270.2881  EKtot   =       144.2464  EPtot      =       224.0874
 BOND   =        55.5026  ANGLE   =        83.9783  DIHED      =        38.2421
 UB     =         0.0000  IMP     =         0.0000  CMAP       =         7.5017
 1-4 NB =        21.9681  1-4 EEL =        47.0068  VDWAALS    =       187.8235
 EELEC  =       299.3265  EHBOND  =         0.0000  RESTRAINT  =         0.0000
 EKCMT  =         0.0000  VIRIAL  =         0.0000  VOLUME     =      1024.0278
                                                    Density    =         0.0018
 DV/DL  =         3.7137
 ------------------------------------------------------------------------------

      A V E R A G E S   O V E R    1000 S T E P S

 NSTEP =  1000000   TIME(PS) =    5050.000  TEMP(K) =   300.21  PRESS =     0.0
 Etot   =   -125805.3229  EKtot   =     38418.1261  EPtot      =   -164223.4489
 BOND   =      3433.6521  ANGLE   =     10476.6031  DIHED      =      5930.5877
 UB     =         0.0000  IMP     =         0.0000  CMAP       =       347.1427
 1-4 NB =      2754.7282  1-4 EEL =     -3682.2996  VDWAALS    =      9591.0566
 EELEC  =   -193074.9197  EHBOND  =         0.0000  RESTRAINT  =         0.0000
 EKCMT  =         0.0000  VIRIAL  =         0.0000  VOLUME     =    589082.0446
                                                    Density    =         1.0279
 DV/DL  =       -27.8128
 ------------------------------------------------------------------------------

      R M S  F L U C T U A T I O N S

 NSTEP =  1000000   TIME(PS) =    5050.000  TEMP(K) =     1.13  PRESS =     0.0
 Etot   =       270.2731  EKtot   =       144.3379  EPtot      =       224.0874
 BOND   =        55.5026  ANGLE   =        83.9783  DIHED      =        38.2421
 UB     =         0.0000  IMP     =         0.0000  CMAP       =         7.5017
 1-4 NB =        21.9681  1-4 EEL =        47.0068  VDWAALS    =       187.8235
 EELEC  =       299.3265  EHBOND  =         0.0000  RESTRAINT  =         0.0000
 EKCMT  =         0.0000  VIRIAL  =         0.0000  VOLUME     =      1024.0278
                                                    Density    =         0.0018
 DV/DL  =         3.7137
 ------------------------------------------------------------------------------

      DV/DL, AVERAGES OVER    1000 STEPS

 NSTEP =  1000000   TIME(PS) =    5050.000  TEMP(K) =     1.13  PRESS =     0.0
 Etot   =         0.0000  EKtot   =         0.0000  EPtot      =         0.0000
 BOND   =         0.0000  ANGLE   =         0.0000  DIHED      =         0.0000
 UB     =         0.0000  IMP     =         0.0000  CMAP       =         0.0000
 1-4 NB =         0.6762  1-4 EEL =       -51.8842  VDWAALS    =        -3.2923
 EELEC  =        22.3647  EHBOND  =         0.0000  RESTRAINT  =         0.0000
 EKCMT  =         0.0000  VIRIAL  =         0.0000  VOLUME     =         0.0000
                                                    Density    =         0.0000
 ------------------------------------------------------------------------------
