-------------------------------------------------------
          Amber 20 PMEMD                              2020
          -------------------------------------------------------

  [-O]verwriting output

File Assignments:

 Here is the input file:

TI simulation
 &cntrl

! simulation
imin = 0,                 ! flag to run minization (0=false)
nstlim = 250000,         ! number of MD steps
irest = 1,                ! flag to restart simulation
ntx = 5,                  ! option to read from inpcrd file
ntxo = 1,                 ! read/write rst as formatted file
dt = 0.004,               ! timestep (4fs;hmr)
ntb = 2,              ! specify PBC type

! thermostate
ntt = 3,                  ! switch for time scaling (3=Langevin)
temp0 = 300,            ! reference temperature (if ntt>0)
gamma_ln = 5.0,           ! collision frequency for ntt=3
ig = -1,                  ! seed for Random Number Generator (RNG) (use -1 with
! barostate
ntp = 1,                  ! constant pressure dynamics (1=do scaling)
barostat = 2,             ! barostat to use (2=Monte Carlo)
mcbarint = 100,           ! volume change attempt every n steps
pres0 = 1.01325,          ! referenve pressure (in bars)
taup = 2.0,               ! pressure relation time (in ps)

! output
ioutfm = 1,               ! film fromat (1=binary NetCDF)
iwrap = 0,                ! wrap coordination into primary box (1=do)
ntwe = 10000,             ! write to .mden every n steps
ntwx = 10000,             ! write to .mdcrd every n steps
ntpr = 1000,              ! write energies to .mdout/.mdinfo every n steps
ntwr = 10000,             ! write rstrt file every n steps

! alchemical free energy
cut = 9.0
ntc = 2,                  ! SHAKE bond length constraints (2=H-atom)
ntf = 1,                  ! force evaluation (1=evalute all)
!noshakemask = ':1,2',     ! remove SHAKE from perturbed regions

icfe = 1,                 ! turn on free energy calculation
ifsc = 1,                 ! use softcore parameters (0=undo)
gti_add_sc = 2,           ! (3=1-4 vdW & vdW interactions will be scaled with l
clambda = 0.3161,           ! current lambda
ifmbar = 1,               ! generate additional output (1=do)
bar_intervall = 1,
mbar_states = 12,       ! number of lamda windows considered
mbar_lambda = 0.0000 0.0479 0.1151 0.2063 0.3161 0.4374 0.5626 0.6839 0.7937 0.
timask1 = ':L11',           ! specify atoms unique to V_0
timask2 = ':25a',           ! specify atoms unique to V_1

scmask1 = ':L11@H8',
                      ! specify the unique atoms for V0
scmask2 = ':25a@C10, H11, H12, H13',
                      ! specify the unique atoms for V1
 /
 &ewald
 /

Note: ig = -1. Setting random seed to   103211 based on wallclock time in
      microseconds.

--------------------------------------------------------------------------------
   1.  RESOURCE   USE:
--------------------------------------------------------------------------------

 getting new box info from bottom of inpcrd
 NATOM  =   49930 NTYPES =      53 NBONH =   47491 MBONA  =    2414
 NTHETH =    5397 MTHETA =    3300 NPHIH =   10743 MPHIA  =   10556
 NHPARM =       0 NPARM  =       0 NNB   =   86417 NRES   =   15424
 NBONA  =    2414 NTHETA =    3300 NPHIA =   10556 NUMBND =     105
 NUMANG =     222 NPTRA  =     409 NATYP =       0 NPHB   =       0
 IFBOX  =       1 NMXRS  =      27 IFCAP =       0 NEXTRA =       0
 NCOPY  =       0

     BOX TYPE: RECTILINEAR

--------------------------------------------------------------------------------
   2.  CONTROL  DATA  FOR  THE  RUN
--------------------------------------------------------------------------------

General flags:
     imin    =       0, nmropt  =       0

Nature and format of input:
     ntx     =       5, irest   =       1, ntrx    =       1

Nature and format of output:
     ntxo    =       1, ntpr    =    1000, ntrx    =       1, ntwr    =   10000
     iwrap   =       0, ntwx    =   10000, ntwv    =       0, ntwe    =   10000
     ioutfm  =       1, ntwprt  =       0, idecomp =       0, rbornstat=      0

Potential function:
     ntf     =       1, ntb     =       2, igb     =       0, nsnb    =      25
     ipol    =       0, gbsa    =       0, iesp    =       0
     dielc   =   1.00000, cut     =   9.00000, intdiel =   1.00000

Frozen or restrained atoms:
     ibelly  =       0, ntr     =       0

Molecular dynamics:
     nstlim  =    250000, nscm    =      1000, nrespa  =         1
     t       =   0.00000, dt      =   0.00400, vlimit  =  -1.00000

Langevin dynamics temperature regulation:
     ig      =  103211
     temp0   = 300.00000, tempi   =   0.00000, gamma_ln=   5.00000

Pressure regulation:
     ntp     =       1
     pres0   =   1.01325, comp    =  44.60000, taup    =   2.00000
     Monte-Carlo Barostat:
     mcbarint  =     100

SHAKE:
     ntc     =       2, jfastw  =       0
     tol     =   0.00001

Free energy options:
     icfe    =       1, ifsc    =       1, klambda =       1
     clambda =  0.3161, scalpha =  0.5000, scbeta  = 12.0000
     sceeorder =       2
     dynlmb =  0.0000 logdvdl =       0

FEP MBAR options:
     ifmbar  =       1,  bar_intervall =        1
     mbar_states =      12

Ewald parameters:
     verbose =       0, ew_type =       0, nbflag  =       1, use_pme =       1
     vdwmeth =       1, eedmeth =       1, netfrc  =       1
     Box X =  106.790   Box Y =   68.581   Box Z =   68.581
     Alpha =   90.000   Beta  =   90.000   Gamma =   90.000
     NFFT1 =  108       NFFT2 =   72       NFFT3 =   72
     Cutoff=    9.000   Tol   =0.100E-04
     Ewald Coefficient =  0.30768
     Interpolation order =    4
     TI Mask 1 :L11; matches     24 atoms
     TI Mask 2 :25a; matches     27 atoms
     TI region 1:   49903 atoms
     TI region 2:   49906 atoms
     SC Mask 1 :L11@H8; matches      1 atoms
     SC Mask 2 :25a@C10, H11, H12, H13; matches      4 atoms

    MBAR - lambda values considered:
      12 total:  0.0000 0.0479 0.1151 0.2063 0.3161 0.4374 0.5626 0.6839 0.7937 0.8850 0.9521 1.0000
    Extra energies will be computed 250000 times.

--------------------------------------------------------------------------------
   3.  ATOMIC COORDINATES AND VELOCITIES
--------------------------------------------------------------------------------

 begin time read from input coords =    50.000 ps

     Molecule     2 is partially softcore
     Molecule     3 is partially softcore
 Number of triangulated 3-point waters found:    15032
   Removing shake constraints from C7    L11 300 -- H8    L11 300
 Number of shake restraints removed in TI region  1 :        1
 Number of shake restraints removed in TI region  2 :        0

     Sum of charges for TI region  1 =   0.00099880
     Skip neutralizing charges...

     Sum of charges for TI region  2 =  -0.00000019
     Skip neutralizing charges...

--------------------------------------------------------------------------------
   4.  RESULTS
 NSTEP =     1000   TIME(PS) =      54.000  TEMP(K) =   299.31  PRESS =     0.0
 Etot   =   -127015.6173  EKtot   =     30402.6411  EPtot      =   -157418.2584
 BOND   =      1126.4520  ANGLE   =      2622.0773  DIHED      =      1541.2923
 1-4 NB =      1091.7711  1-4 EEL =     11819.0007  VDWAALS    =     18466.6550
 EELEC  =   -194085.5069  EHBOND  =         0.0000  RESTRAINT  =         0.0000
 EKCMT  =         0.0000  VIRIAL  =         0.0000  VOLUME     =    503571.0927
                                                    Density    =         1.0134
 DV/DL  =       -33.6220
 ------------------------------------------------------------------------------

      A V E R A G E S   O V E R     250 S T E P S

 NSTEP =   250000   TIME(PS) =    1050.000  TEMP(K) =   300.12  PRESS =     0.0
 Etot   =   -127346.2060  EKtot   =     30484.3572  EPtot      =   -157830.5632
 BOND   =      1126.5536  ANGLE   =      2568.8929  DIHED      =      1546.6125
 1-4 NB =      1092.9920  1-4 EEL =     11838.6412  VDWAALS    =     18570.5447
 EELEC  =   -194574.8002  EHBOND  =         0.0000  RESTRAINT  =         0.0000
 EKCMT  =         0.0000  VIRIAL  =         0.0000  VOLUME     =    502919.3045
                                                    Density    =         1.0147
 DV/DL  =       -28.7960
 ------------------------------------------------------------------------------

      R M S  F L U C T U A T I O N S

 NSTEP =   250000   TIME(PS) =    1050.000  TEMP(K) =     1.35  PRESS =     0.0
 Etot   =       231.9453  EKtot   =       137.6185  EPtot      =       191.9939
 BOND   =        31.7595  ANGLE   =        36.9354  DIHED      =        20.5083
 1-4 NB =        13.5402  1-4 EEL =        34.2174  VDWAALS    =       185.0502
 EELEC  =       300.0592  EHBOND  =         0.0000  RESTRAINT  =         0.0000
 EKCMT  =         0.0000  VIRIAL  =         0.0000  VOLUME     =      1071.8010
                                                    Density    =         0.0022
 DV/DL  =         3.2134
 ------------------------------------------------------------------------------

      A V E R A G E S   O V E R     250 S T E P S

 NSTEP =   250000   TIME(PS) =    1050.000  TEMP(K) =   300.12  PRESS =     0.0
 Etot   =   -127344.3805  EKtot   =     30486.1826  EPtot      =   -157830.5632
 BOND   =      1126.5536  ANGLE   =      2568.8929  DIHED      =      1546.6125
 1-4 NB =      1092.9920  1-4 EEL =     11838.6412  VDWAALS    =     18570.5447
 EELEC  =   -194574.8002  EHBOND  =         0.0000  RESTRAINT  =         0.0000
 EKCMT  =         0.0000  VIRIAL  =         0.0000  VOLUME     =    502919.3045
                                                    Density    =         1.0148
 DV/DL  =       -28.7960
 ------------------------------------------------------------------------------

      R M S  F L U C T U A T I O N S

 NSTEP =   250000   TIME(PS) =    1050.000  TEMP(K) =     1.35  PRESS =     0.0
 Etot   =       231.8941  EKtot   =       137.4740  EPtot      =       191.9939
 BOND   =        31.7595  ANGLE   =        36.9354  DIHED      =        20.5083
 1-4 NB =        13.5402  1-4 EEL =        34.2174  VDWAALS    =       185.0502
 EELEC  =       300.0592  EHBOND  =         0.0000  RESTRAINT  =         0.0000
 EKCMT  =         0.0000  VIRIAL  =         0.0000  VOLUME     =      1071.8010
                                                    Density    =         0.0022
 DV/DL  =         3.2134
 ------------------------------------------------------------------------------

      DV/DL, AVERAGES OVER     250 STEPS

 NSTEP =   250000   TIME(PS) =    1050.000  TEMP(K) =     1.35  PRESS =     0.0
 Etot   =         0.0000  EKtot   =         0.0000  EPtot      =         0.0000
 BOND   =         0.0000  ANGLE   =         0.0000  DIHED      =         0.0000
 1-4 NB =         0.6955  1-4 EEL =       -51.8487  VDWAALS    =        -1.7102
 EELEC  =        21.7496  EHBOND  =         0.0000  RESTRAINT  =         0.0000
 EKCMT  =         0.0000  VIRIAL  =         0.0000  VOLUME     =         0.0000
                                                    Density    =         0.0000
 ------------------------------------------------------------------------------
